C:\Users\Usuario X\OneDrive - Universidad Autonoma de Coahuila\Documentos\ALEX\INVESTIGACIÓN\PROYECTOS\Magali\castela\estructuras\11-O-trans-pcoumaroyl amarolide.pdb
     RDKit          3D

 37 41  0  0  1  0  0  0  0  0999 V2000
    2.6195   -0.2796    1.6562 C   0  0  1  0  0  0  0  0  0  0  0  0
    1.9630   -0.2054    3.0312 C   0  0  0  0  0  0  0  0  0  0  0  0
    2.8427   -1.7116    1.1409 C   0  0  0  0  0  0  0  0  0  0  0  0
    1.8682   -2.1838    0.0340 C   0  0  1  0  0  0  0  0  0  0  0  0
    1.8374   -3.7135    0.0104 C   0  0  0  0  0  0  0  0  0  0  0  0
    0.4946   -1.5201    0.2632 C   0  0  2  0  0  0  0  0  0  0  0  0
   -0.7096   -2.1618   -0.4504 C   0  0  0  0  0  0  0  0  0  0  0  0
   -2.0557   -1.5567    0.0366 C   0  0  1  0  0  0  0  0  0  0  0  0
   -3.1920   -2.2692   -0.7274 C   0  0  0  0  0  0  0  0  0  0  0  0
   -2.1673   -1.9925    1.4194 O   0  0  0  0  0  0  0  0  0  0  0  0
   -3.1124   -1.5127    2.2525 C   0  0  0  0  0  0  0  0  0  0  0  0
   -3.5912   -2.2068    3.1419 O   0  0  0  0  0  0  0  0  0  0  0  0
   -3.4106   -0.0453    2.1390 C   0  0  0  0  0  0  0  0  0  0  0  0
   -3.3387    0.5224    0.7174 C   0  0  1  0  0  0  0  0  0  0  0  0
   -3.4259    2.0640    0.6922 C   0  0  1  0  0  0  0  0  0  0  0  0
   -4.6961    2.5953    1.3612 C   0  0  0  0  0  0  0  0  0  0  0  0
   -2.1716    2.6469    1.3188 C   0  0  0  0  0  0  0  0  0  0  0  0
   -2.2541    3.4768    2.2262 O   0  0  0  0  0  0  0  0  0  0  0  0
   -0.8197    2.1853    0.7219 C   0  0  1  0  0  0  0  0  0  0  0  0
    0.2087    2.5789    1.6324 O   0  0  0  0  0  0  0  0  0  0  0  0
    0.6327    3.9354    1.4579 C   0  0  0  0  0  0  0  0  0  0  0  0
    1.5099    4.2751    2.6217 C   0  0  0  0  0  0  0  0  0  0  0  0
    2.6607    4.9668    2.6109 C   0  0  0  0  0  0  0  0  0  0  0  0
    3.2823    5.5515    1.4224 C   0  0  0  0  0  0  0  0  0  0  0  0
    3.2695    6.9408    1.2497 C   0  0  0  0  0  0  0  0  0  0  0  0
    3.8638    7.5187    0.1246 C   0  0  0  0  0  0  0  0  0  0  0  0
    4.4715    6.7010   -0.8234 C   0  0  0  0  0  0  0  0  0  0  0  0
    5.0617    7.2227   -1.9365 O   0  0  0  0  0  0  0  0  0  0  0  0
    4.4952    5.3208   -0.6631 C   0  0  0  0  0  0  0  0  0  0  0  0
    3.9030    4.7453    0.4626 C   0  0  0  0  0  0  0  0  0  0  0  0
   -0.7688    0.6322    0.5972 C   0  0  2  0  0  0  0  0  0  0  0  0
    0.5690    0.0234    0.0020 C   0  0  2  0  0  0  0  0  0  0  0  0
    0.7911    0.3418   -1.5028 C   0  0  0  0  0  0  0  0  0  0  0  0
    1.8742    0.5662    0.6428 C   0  0  0  0  0  0  0  0  0  0  0  0
    2.3681    1.6361    0.2712 O   0  0  0  0  0  0  0  0  0  0  0  0
   -2.0832    0.0103   -0.0629 C   0  0  1  0  0  0  0  0  0  0  0  0
   -2.2690    0.4442   -1.5452 C   0  0  0  0  0  0  0  0  0  0  0  0
  3  1  1  1
  1 34  1  6
  2  1  1  1
  3  4  1  0
  4  5  1  1
  4  6  1  0
  6  7  1  6
  6 32  1  0
  7  8  1  6
  9  8  1  1
  8 10  1  1
  8 36  1  0
 10 11  1  0
 11 12  2  0
 13 11  1  1
 14 13  1  1
 14 15  1  0
 14 36  1  0
 16 15  1  1
 15 17  1  1
 17 18  2  0
 17 19  1  0
 31 19  1  6
 19 20  1  1
 21 20  1  6
 21 22  1  0
 22 23  2  0
 23 24  1  0
 24 25  2  0
 24 30  1  0
 25 26  1  0
 26 27  2  0
 27 28  1  0
 27 29  1  0
 29 30  2  0
 31 32  1  0
 31 36  1  0
 33 32  1  1
 32 34  1  1
 34 35  2  0
 36 37  1  6
M  END
>  <COMPND>  (1) 
    UNNAMED

>  <AUTHOR>  (1) 
    GENERATED BY OPEN BABEL 2.3.90

>  <MASTER>  (1) 
        0    0    0    0    0    0    0    0   77    0   77    0

$$$$
C:\Users\Usuario X\OneDrive - Universidad Autonoma de Coahuila\Documentos\ALEX\INVESTIGACIÓN\PROYECTOS\Magali\castela\estructuras\Amarolide.pdb
     RDKit          3D

 27 30  0  0  1  0  0  0  0  0999 V2000
    2.5425    0.0040    0.1398 C   0  0  1  0  0  0  0  0  0  0  0  0
    1.4407   -0.2053   -0.8987 C   0  0  0  0  0  0  0  0  0  0  0  0
    1.5252   -1.1680   -1.6638 O   0  0  0  0  0  0  0  0  0  0  0  0
    0.2519    0.7876   -0.9696 C   0  0  2  0  0  0  0  0  0  0  0  0
    0.6358    1.8726   -2.0069 C   0  0  0  0  0  0  0  0  0  0  0  0
    0.1199    1.4028    0.4244 C   0  0  0  0  0  0  0  0  0  0  0  0
   -1.0033    1.3071    1.1572 C   0  0  0  0  0  0  0  0  0  0  0  0
   -2.2743    0.6122    0.7433 C   0  0  1  0  0  0  0  0  0  0  0  0
   -2.0643   -0.4481   -0.3994 C   0  0  2  0  0  0  0  0  0  0  0  0
   -3.4458   -0.8192   -1.0145 C   0  0  0  0  0  0  0  0  0  0  0  0
   -1.4729   -1.7364    0.1559 C   0  0  0  0  0  0  0  0  0  0  0  0
   -0.8739   -2.7536   -0.8108 C   0  0  0  0  0  0  0  0  0  0  0  0
   -0.9663   -2.3406   -2.2842 C   0  0  0  0  0  0  0  0  0  0  0  0
   -0.9170   -0.8453   -2.6096 C   0  0  0  0  0  0  0  0  0  0  0  0
   -1.1087    0.1444   -1.4736 C   0  0  2  0  0  0  0  0  0  0  0  0
   -0.7670   -0.4720   -3.7683 O   0  0  0  0  0  0  0  0  0  0  0  0
   -1.0872   -3.1412   -3.2060 O   0  0  0  0  0  0  0  0  0  0  0  0
   -1.5207   -4.1395   -0.6514 C   0  0  0  0  0  0  0  0  0  0  0  0
   -1.5275   -1.9812    1.4779 C   0  0  0  0  0  0  0  0  0  0  0  0
   -2.2533   -1.1279    2.4329 C   0  0  0  0  0  0  0  0  0  0  0  0
   -2.3791   -1.4667    3.6012 O   0  0  0  0  0  0  0  0  0  0  0  0
   -2.8187   -0.0094    1.9302 O   0  0  0  0  0  0  0  0  0  0  0  0
   -3.2715    1.7322    0.3859 C   0  0  0  0  0  0  0  0  0  0  0  0
    1.3397    2.0541    1.0693 C   0  0  2  0  0  0  0  0  0  0  0  0
    1.3236    3.5797    0.9484 C   0  0  0  0  0  0  0  0  0  0  0  0
    2.6606    1.4679    0.5556 C   0  0  0  0  0  0  0  0  0  0  0  0
    2.3327   -0.9388    1.3219 C   0  0  0  0  0  0  0  0  0  0  0  0
  1  2  1  0
  1 26  1  0
  1 27  1  1
  2  4  1  0
  2  3  2  0
  4  6  1  0
  4 15  1  0
  4  5  1  6
  6  7  2  0
  6 24  1  0
  7  8  1  0
  8  9  1  0
  8 22  1  0
  8 23  1  1
  9 11  1  0
  9 15  1  0
  9 10  1  6
 11 12  1  0
 11 19  2  0
 12 13  1  0
 12 18  1  0
 13 14  1  0
 13 17  2  0
 14 16  2  0
 15 14  1  1
 19 20  1  0
 20 22  1  0
 20 21  2  0
 24 26  1  0
 24 25  1  1
M  END
>  <COMPND>  (2) 
    UNNAMED

>  <AUTHOR>  (2) 
    GENERATED BY OPEN BABEL 2.3.90

>  <MASTER>  (2) 
        0    0    0    0    0    0    0    0   27    0   27    0

$$$$
C:\Users\Usuario X\OneDrive - Universidad Autonoma de Coahuila\Documentos\ALEX\INVESTIGACIÓN\PROYECTOS\Magali\castela\estructuras\Castelalin.pdb
     RDKit          3D

 26 29  0  0  1  0  0  0  0  0999 V2000
    1.8130   -2.4902    1.7192 C   0  0  0  0  0  0  0  0  0  0  0  0
    2.6208   -2.8121    2.5757 O   0  0  0  0  0  0  0  0  0  0  0  0
    1.3727   -3.4427    0.6799 C   0  0  0  0  0  0  0  0  0  0  0  0
    0.4862   -3.0773   -0.2599 C   0  0  0  0  0  0  0  0  0  0  0  0
    0.0340   -4.0502   -1.3160 C   0  0  0  0  0  0  0  0  0  0  0  0
   -0.1198   -1.6798   -0.3165 C   0  0  1  0  0  0  0  0  0  0  0  0
   -1.5422   -1.7448    0.2971 C   0  0  0  0  0  0  0  0  0  0  0  0
   -2.0169   -0.4506    0.9700 C   0  0  2  0  0  0  0  0  0  0  0  0
   -3.5266   -0.4567    1.1936 C   0  0  0  0  0  0  0  0  0  0  0  0
   -3.9378    0.7908    1.9337 C   0  0  0  0  0  0  0  0  0  0  0  0
   -4.9146    0.8181    2.6771 O   0  0  0  0  0  0  0  0  0  0  0  0
   -3.1842    2.0464    1.6764 C   0  0  0  0  0  0  0  0  0  0  0  0
   -2.1092    2.1014    0.8631 C   0  0  0  0  0  0  0  0  0  0  0  0
   -1.4611    3.4423    0.4537 C   0  0  1  0  0  0  0  0  0  0  0  0
   -1.8054    4.6435    1.3425 C   0  0  0  0  0  0  0  0  0  0  0  0
    0.0578    3.3406    0.3119 C   0  0  0  0  0  0  0  0  0  0  0  0
    0.8677    4.2126    0.5894 O   0  0  0  0  0  0  0  0  0  0  0  0
    0.5444    2.0421   -0.2942 C   0  0  0  0  0  0  0  0  0  0  0  0
    1.1793    2.0577   -1.3349 O   0  0  0  0  0  0  0  0  0  0  0  0
    0.0302    0.8233    0.4392 C   0  0  2  0  0  0  0  0  0  0  0  0
    0.7863   -0.5642    0.2878 C   0  0  2  0  0  0  0  0  0  0  0  0
    2.0976   -0.4315   -0.5241 C   0  0  0  0  0  0  0  0  0  0  0  0
    1.2143   -1.0860    1.6738 C   0  0  0  0  0  0  0  0  0  0  0  0
    1.0854   -0.4616    2.7193 O   0  0  0  0  0  0  0  0  0  0  0  0
   -1.5191    0.8152    0.2305 C   0  0  1  0  0  0  0  0  0  0  0  0
   -1.9650    0.8260   -1.2560 C   0  0  0  0  0  0  0  0  0  0  0  0
  1  3  1  0
  1 23  1  0
  1  2  2  0
  3  4  2  0
  4  5  1  0
  4  6  1  0
  6  7  1  1
  6 21  1  0
  8  7  1  1
  8  9  1  0
  8 25  1  0
  9 10  1  0
 10 11  2  0
 10 12  1  0
 12 13  2  0
 13 14  1  0
 13 25  1  0
 14 15  1  6
 14 16  1  0
 16 18  1  0
 16 17  2  0
 18 19  2  0
 20 18  1  1
 20 21  1  0
 20 25  1  0
 21 22  1  6
 21 23  1  0
 23 24  2  0
 25 26  1  6
M  END
>  <COMPND>  (3) 
    UNNAMED

>  <AUTHOR>  (3) 
    GENERATED BY OPEN BABEL 2.3.90

>  <MASTER>  (3) 
        0    0    0    0    0    0    0    0   26    0   26    0

$$$$
C:\Users\Usuario X\OneDrive - Universidad Autonoma de Coahuila\Documentos\ALEX\INVESTIGACIÓN\PROYECTOS\Magali\castela\estructuras\Castelanolide.pdb
     RDKit          3D

 26 29  0  0  1  0  0  0  0  0999 V2000
    2.2786    1.2868    2.0823 C   0  0  0  0  0  0  0  0  0  0  0  0
    2.7895    1.9257    2.9874 O   0  0  0  0  0  0  0  0  0  0  0  0
    2.9631    0.1342    1.4608 C   0  0  0  0  0  0  0  0  0  0  0  0
    2.3879   -0.5496    0.4575 C   0  0  0  0  0  0  0  0  0  0  0  0
    3.0808   -1.7286   -0.1722 C   0  0  0  0  0  0  0  0  0  0  0  0
    1.0122   -0.1938   -0.0967 C   0  0  1  0  0  0  0  0  0  0  0  0
   -0.0240   -1.1687    0.5173 C   0  0  0  0  0  0  0  0  0  0  0  0
   -1.4227   -0.5835    0.7175 C   0  0  2  0  0  0  0  0  0  0  0  0
   -2.3620   -1.6666    0.8300 O   0  0  0  0  0  0  0  0  0  0  0  0
   -3.6842   -1.3675    0.9069 C   0  0  0  0  0  0  0  0  0  0  0  0
   -4.5241   -2.1729    1.2817 O   0  0  0  0  0  0  0  0  0  0  0  0
   -4.0818   -0.0127    0.4633 C   0  0  0  0  0  0  0  0  0  0  0  0
   -3.2410    0.8250   -0.1750 C   0  0  0  0  0  0  0  0  0  0  0  0
   -3.6968    2.1848   -0.6917 C   0  0  1  0  0  0  0  0  0  0  0  0
   -4.1379    3.1128    0.4434 C   0  0  0  0  0  0  0  0  0  0  0  0
   -2.6798    2.9392   -1.5569 C   0  0  0  0  0  0  0  0  0  0  0  0
   -2.9770    3.9124   -2.2392 O   0  0  0  0  0  0  0  0  0  0  0  0
   -1.2271    2.4607   -1.5185 C   0  0  0  0  0  0  0  0  0  0  0  0
   -0.4850    2.6965   -2.4583 O   0  0  0  0  0  0  0  0  0  0  0  0
   -0.8739    1.6167   -0.3088 C   0  0  2  0  0  0  0  0  0  0  0  0
    0.6411    1.3146    0.0532 C   0  0  2  0  0  0  0  0  0  0  0  0
    1.6205    2.2086   -0.7443 C   0  0  0  0  0  0  0  0  0  0  0  0
    0.8974    1.6421    1.5367 C   0  0  0  0  0  0  0  0  0  0  0  0
    0.0567    2.1133    2.2923 O   0  0  0  0  0  0  0  0  0  0  0  0
   -1.8046    0.3818   -0.4106 C   0  0  1  0  0  0  0  0  0  0  0  0
   -1.7790   -0.3229   -1.7960 C   0  0  0  0  0  0  0  0  0  0  0  0
  1  3  1  0
  1 23  1  0
  1  2  2  0
  3  4  2  0
  4  6  1  0
  4  5  1  0
  6  7  1  1
  6 21  1  0
  8  7  1  1
  8  9  1  0
  8 25  1  0
  9 10  1  0
 10 12  1  0
 10 11  2  0
 12 13  2  0
 13 14  1  0
 13 25  1  0
 14 16  1  0
 14 15  1  6
 16 18  1  0
 16 17  2  0
 18 19  2  0
 20 18  1  1
 20 21  1  0
 20 25  1  0
 21 23  1  0
 21 22  1  6
 23 24  2  0
 25 26  1  6
M  END
>  <COMPND>  (4) 
    UNNAMED

>  <AUTHOR>  (4) 
    GENERATED BY OPEN BABEL 2.3.90

>  <MASTER>  (4) 
        0    0    0    0    0    0    0    0   26    0   26    0

$$$$
C:\Users\Usuario X\OneDrive - Universidad Autonoma de Coahuila\Documentos\ALEX\INVESTIGACIÓN\PROYECTOS\Magali\castela\estructuras\Castelanone.pdb
     RDKit          3D

 34 38  0  0  1  0  0  0  0  0999 V2000
    6.3280    0.2860   -1.5270 C   0  0  0  0  0  0  0  0  0  0  0  0
    6.8890    0.3490   -2.9570 C   0  0  2  0  0  0  0  0  0  0  0  0
    8.0300   -0.6690   -3.1120 C   0  0  0  0  0  0  0  0  0  0  0  0
    7.2220    1.6650   -3.3520 C   0  0  0  0  0  0  0  0  0  0  0  0
    7.6880    2.9630   -3.7140 C   0  0  0  0  0  0  0  0  0  0  0  0
    8.8840    3.1280   -3.9380 O   0  0  0  0  0  0  0  0  0  0  0  0
    6.8250    4.0320   -3.6350 O   0  0  0  0  0  0  0  0  0  0  0  0
    5.4330    3.9610   -3.3640 C   0  0  2  0  0  0  0  0  0  0  0  0
    4.5770    3.1750   -4.2090 C   0  0  1  0  0  0  0  0  0  0  0  0
    4.8590    2.4050   -5.4310 C   0  0  1  0  0  0  0  0  0  0  0  0
    5.8570    2.9960   -6.4430 C   0  0  0  0  0  0  0  0  0  0  0  0
    4.2590    1.0550   -5.5980 C   0  0  0  0  0  0  0  0  0  0  0  0
    5.1110    0.1190   -5.4340 O   0  0  0  0  0  0  0  0  0  0  0  0
    2.8020    0.9510   -4.9340 C   0  0  1  0  0  0  0  0  0  0  0  0
    1.9410    0.2350   -5.6010 O   0  0  0  0  0  0  0  0  0  0  0  0
    2.9510    0.4260   -3.5480 O   0  0  0  0  0  0  0  0  0  0  0  0
    3.2750    1.5660   -2.9610 C   0  0  0  0  0  0  0  0  0  0  0  0
    3.2380    2.8590   -3.6250 C   0  0  2  0  0  0  0  0  0  0  0  0
    2.2870    2.3830   -4.7370 C   0  0  2  0  0  0  0  0  0  0  0  0
    0.9500    3.1040   -4.9520 C   0  0  1  0  0  0  0  0  0  0  0  0
    1.4420    4.5990   -5.4670 C   0  0  0  0  0  0  0  0  0  0  0  0
   -0.1560    2.5420   -5.9580 C   0  0  0  0  0  0  0  0  0  0  0  0
   -0.7100    3.2850   -6.8370 O   0  0  0  0  0  0  0  0  0  0  0  0
   -0.9950    1.4490   -5.3250 C   0  0  0  0  0  0  0  0  0  0  0  0
   -1.7890    0.6950   -5.8720 O   0  0  0  0  0  0  0  0  0  0  0  0
   -1.0180    1.5800   -3.9050 C   0  0  0  0  0  0  0  0  0  0  0  0
   -0.5890    2.4070   -3.0200 C   0  0  2  0  0  0  0  0  0  0  0  0
   -1.2990    2.4880   -1.6790 C   0  0  0  0  0  0  0  0  0  0  0  0
    0.3430    3.4080   -3.5000 C   0  0  1  0  0  0  0  0  0  0  0  0
    1.3100    3.9680   -2.6030 C   0  0  0  0  0  0  0  0  0  0  0  0
    2.7160    3.8680   -2.6490 C   0  0  2  0  0  0  0  0  0  0  0  0
    3.5520    4.8360   -2.0700 O   0  0  0  0  0  0  0  0  0  0  0  0
    4.8970    4.8690   -2.3220 C   0  0  0  0  0  0  0  0  0  0  0  0
    5.6420    5.6230   -1.6970 O   0  0  0  0  0  0  0  0  0  0  0  0
  2  1  1  1
  2  3  1  0
  2  4  1  0
  4  5  1  0
  5  6  2  0
  5  7  1  0
  8  7  1  6
  9  8  1  1
  8 33  1  0
  9 10  1  0
  9 18  1  0
 10 12  1  0
 10 11  1  1
 12 14  1  0
 12 13  2  0
 14 16  1  0
 19 14  1  1
 14 15  1  6
 16 17  1  0
 18 17  1  1
 18 19  1  0
 18 31  1  0
 19 20  1  0
 20 22  1  0
 20 29  1  0
 20 21  1  6
 22 24  1  0
 22 23  2  0
 24 26  1  0
 24 25  2  0
 26 27  1  0
 27 29  1  0
 27 28  1  6
 29 30  1  1
 31 30  1  6
 31 32  1  0
 32 33  1  0
 33 34  2  0
M  END
>  <COMPND>  (5) 
    UNNAMED

>  <AUTHOR>  (5) 
    GENERATED BY OPEN BABEL 2.3.90

>  <MASTER>  (5) 
        0    0    0    0    0    0    0    0   34    0   34    0

$$$$
C:\Users\Usuario X\OneDrive - Universidad Autonoma de Coahuila\Documentos\ALEX\INVESTIGACIÓN\PROYECTOS\Magali\castela\estructuras\Casteloside C.pdb
     RDKit          3D

 38 43  0  0  1  0  0  0  0  0999 V2000
    2.9547   -3.9758   -3.6655 C   0  0  0  0  0  0  0  0  0  0  0  0
    2.1498   -2.6780   -3.5697 C   0  0  1  0  0  0  0  0  0  0  0  0
    1.0545   -2.8225   -2.4766 C   0  0  0  0  0  0  0  0  0  0  0  0
    0.5177   -3.9033   -2.2195 O   0  0  0  0  0  0  0  0  0  0  0  0
    0.6075   -1.5159   -1.7395 C   0  0  1  0  0  0  0  0  0  0  0  0
   -0.7205   -1.5795   -1.3031 O   0  0  0  0  0  0  0  0  0  0  0  0
    1.4349   -1.3191   -0.5960 O   0  0  0  0  0  0  0  0  0  0  0  0
    2.6612   -0.7394   -1.0435 C   0  0  0  0  0  0  0  0  0  0  0  0
    2.4062   -0.3230   -2.5088 C   0  0  1  0  0  0  0  0  0  0  0  0
    0.8718   -0.3171   -2.6653 C   0  0  2  0  0  0  0  0  0  0  0  0
    0.2095    1.0788   -2.3770 C   0  0  1  0  0  0  0  0  0  0  0  0
    0.0168    1.8507   -3.7226 C   0  0  0  0  0  0  0  0  0  0  0  0
   -1.2371    0.9588   -1.8635 C   0  0  0  0  0  0  0  0  0  0  0  0
   -2.1089    0.3886   -2.5345 O   0  0  0  0  0  0  0  0  0  0  0  0
   -1.6064    1.6292   -0.5328 C   0  0  2  0  0  0  0  0  0  0  0  0
   -3.0097    1.8885   -0.5578 O   0  0  0  0  0  0  0  0  0  0  0  0
   -3.8142    0.9058    0.0639 C   0  0  1  0  0  0  0  0  0  0  0  0
   -5.1909    1.1704   -0.2600 O   0  0  0  0  0  0  0  0  0  0  0  0
   -5.4639    0.9261   -1.5972 C   0  0  0  0  0  0  0  0  0  0  0  0
   -6.3430    1.6903   -2.1687 C   0  0  0  0  0  0  0  0  0  0  0  0
   -7.1438    2.4012   -2.6554 O   0  0  0  0  0  0  0  0  0  0  0  0
   -4.9972   -0.3058   -2.2585 C   0  0  0  0  0  0  0  0  0  0  0  0
   -5.2628   -0.6208   -3.4052 O   0  0  0  0  0  0  0  0  0  0  0  0
   -4.1858   -1.1971   -1.3403 C   0  0  0  0  0  0  0  0  0  0  0  0
   -4.1163   -2.4001   -1.5431 O   0  0  0  0  0  0  0  0  0  0  0  0
   -3.5389   -0.5935   -0.1137 C   0  0  0  0  0  0  0  0  0  0  0  0
   -2.8714   -1.2597    0.6662 O   0  0  0  0  0  0  0  0  0  0  0  0
   -0.9141    2.9602   -0.4536 C   0  0  0  0  0  0  0  0  0  0  0  0
    0.3529    3.1379   -0.8787 C   0  0  0  0  0  0  0  0  0  0  0  0
    1.0512    4.4593   -0.7469 C   0  0  0  0  0  0  0  0  0  0  0  0
    1.0931    1.9239   -1.4159 C   0  0  2  0  0  0  0  0  0  0  0  0
    2.5110    2.1743   -2.0039 C   0  0  0  0  0  0  0  0  0  0  0  0
    3.0397    1.0108   -2.8716 C   0  0  1  0  0  0  0  0  0  0  0  0
    4.4703    0.9285   -2.7777 O   0  0  0  0  0  0  0  0  0  0  0  0
    5.0897   -0.0682   -3.4687 C   0  0  0  0  0  0  0  0  0  0  0  0
    6.2803   -0.0370   -3.7441 O   0  0  0  0  0  0  0  0  0  0  0  0
    4.2613   -1.2492   -3.8254 C   0  0  0  0  0  0  0  0  0  0  0  0
    3.0085   -1.4274   -3.3620 C   0  0  0  0  0  0  0  0  0  0  0  0
  2  1  1  1
  2  3  1  0
  2 38  1  0
  3  5  1  0
  3  4  2  0
  5  7  1  0
 10  5  1  1
  5  6  1  1
  7  8  1  0
  9  8  1  1
  9 10  1  0
  9 33  1  0
  9 38  1  0
 10 11  1  0
 11 13  1  0
 11 31  1  0
 11 12  1  1
 13 15  1  0
 13 14  2  0
 15 28  1  0
 15 16  1  1
 17 16  1  6
 17 18  1  0
 17 26  1  0
 18 19  1  0
 19 20  2  0
 19 22  1  0
 20 21  2  0
 22 24  1  0
 22 23  2  0
 24 25  2  0
 24 26  1  0
 26 27  2  0
 28 29  2  0
 29 31  1  0
 29 30  1  0
 31 32  1  6
 33 32  1  6
 33 34  1  0
 34 35  1  0
 35 37  1  0
 35 36  2  0
 37 38  2  0
M  END
>  <COMPND>  (6) 
    UNNAMED

>  <AUTHOR>  (6) 
    GENERATED BY OPEN BABEL 2.3.90

>  <MASTER>  (6) 
        0    0    0    0    0    0    0    0   38    0   38    0

$$$$
C:\Users\Usuario X\OneDrive - Universidad Autonoma de Coahuila\Documentos\ALEX\INVESTIGACIÓN\PROYECTOS\Magali\castela\estructuras\Chaparramarine.pdb
     RDKit          3D

 26 29  0  0  1  0  0  0  0  0999 V2000
    1.4774   -0.5719    3.8343 C   0  0  0  0  0  0  0  0  0  0  0  0
    1.1928   -0.2627    4.9783 O   0  0  0  0  0  0  0  0  0  0  0  0
    2.8666   -0.8806    3.4269 C   0  0  0  0  0  0  0  0  0  0  0  0
    3.1755   -1.1537    2.1444 C   0  0  0  0  0  0  0  0  0  0  0  0
    4.5798   -1.5806    1.8035 C   0  0  0  0  0  0  0  0  0  0  0  0
    2.1101   -1.1512    1.0475 C   0  0  2  0  0  0  0  0  0  0  0  0
    2.6075   -0.8220   -0.3332 C   0  0  0  0  0  0  0  0  0  0  0  0
    1.7486   -0.6792   -1.3526 C   0  0  0  0  0  0  0  0  0  0  0  0
    2.2859   -0.3747   -2.6333 O   0  0  0  0  0  0  0  0  0  0  0  0
    1.5694   -0.1801   -3.7750 C   0  0  0  0  0  0  0  0  0  0  0  0
    2.1164    0.0827   -4.8406 O   0  0  0  0  0  0  0  0  0  0  0  0
    0.0806   -0.3544   -3.6684 C   0  0  0  0  0  0  0  0  0  0  0  0
   -0.4696    0.0112   -2.2834 C   0  0  2  0  0  0  0  0  0  0  0  0
   -0.3764    1.5311   -1.9906 C   0  0  1  0  0  0  0  0  0  0  0  0
   -1.0852    2.3941   -3.0381 C   0  0  0  0  0  0  0  0  0  0  0  0
   -0.9731    1.8406   -0.6369 C   0  0  0  0  0  0  0  0  0  0  0  0
   -1.1641    2.9737   -0.2173 O   0  0  0  0  0  0  0  0  0  0  0  0
   -1.2642    0.6542    0.2607 C   0  0  0  0  0  0  0  0  0  0  0  0
   -2.2803    0.6559    0.9399 O   0  0  0  0  0  0  0  0  0  0  0  0
   -0.2418   -0.4696    0.2722 C   0  0  2  0  0  0  0  0  0  0  0  0
    0.8873   -0.2295    1.3516 C   0  0  2  0  0  0  0  0  0  0  0  0
    1.2999    1.2634    1.4409 C   0  0  0  0  0  0  0  0  0  0  0  0
    0.4244   -0.6758    2.7372 C   0  0  0  0  0  0  0  0  0  0  0  0
   -0.6649   -1.1695    2.9859 O   0  0  0  0  0  0  0  0  0  0  0  0
    0.2499   -0.8346   -1.1873 C   0  0  2  0  0  0  0  0  0  0  0  0
   -0.0710   -2.3419   -1.4172 C   0  0  0  0  0  0  0  0  0  0  0  0
  1  3  1  0
  1 23  1  0
  1  2  2  0
  3  4  2  0
  4  6  1  0
  4  5  1  0
  6  7  1  6
  6 21  1  0
  7  8  2  0
  8  9  1  0
  8 25  1  0
  9 10  1  0
 10 12  1  0
 10 11  2  0
 13 12  1  6
 13 14  1  0
 13 25  1  0
 14 16  1  0
 14 15  1  6
 16 18  1  0
 16 17  2  0
 18 19  2  0
 20 18  1  6
 20 21  1  0
 20 25  1  0
 21 23  1  0
 21 22  1  6
 23 24  2  0
 25 26  1  6
M  END
>  <COMPND>  (7) 
    UNNAMED

>  <AUTHOR>  (7) 
    GENERATED BY OPEN BABEL 2.3.90

>  <MASTER>  (7) 
        0    0    0    0    0    0    0    0   26    0   26    0

$$$$
C:\Users\Usuario X\OneDrive - Universidad Autonoma de Coahuila\Documentos\ALEX\INVESTIGACIÓN\PROYECTOS\Magali\castela\estructuras\Chaparrin.pdb
     RDKit          3D

 27 31  0  0  1  0  0  0  0  0999 V2000
    1.7361   -3.1508   -0.7771 C   0  0  0  0  0  0  0  0  0  0  0  0
    1.7240   -1.7940   -1.4812 C   0  0  2  0  0  0  0  0  0  0  0  0
    2.2991   -0.6810   -0.5919 C   0  0  0  0  0  0  0  0  0  0  0  0
    3.1173   -0.8850    0.3090 O   0  0  0  0  0  0  0  0  0  0  0  0
    1.9095    0.7627   -0.9875 C   0  0  1  0  0  0  0  0  0  0  0  0
    2.6042    1.7575   -0.2754 O   0  0  0  0  0  0  0  0  0  0  0  0
    2.1620    0.9165   -2.4204 O   0  0  0  0  0  0  0  0  0  0  0  0
    0.8862    0.7246   -3.1290 C   0  0  0  0  0  0  0  0  0  0  0  0
   -0.0189    0.0961   -2.0601 C   0  0  1  0  0  0  0  0  0  0  0  0
    0.4225    1.0071   -0.9190 C   0  0  1  0  0  0  0  0  0  0  0  0
   -0.5235    1.1401    0.2913 C   0  0  2  0  0  0  0  0  0  0  0  0
    0.0953    2.0465    1.3740 C   0  0  0  0  0  0  0  0  0  0  0  0
   -0.8349   -0.1776    0.9751 C   0  0  0  0  0  0  0  0  0  0  0  0
   -0.1561   -1.1829    0.8311 O   0  0  0  0  0  0  0  0  0  0  0  0
   -2.0479   -0.2165    1.8909 C   0  0  0  0  0  0  0  0  0  0  0  0
   -2.1192   -1.0096    2.8160 O   0  0  0  0  0  0  0  0  0  0  0  0
   -3.1424    0.7270    1.6056 C   0  0  0  0  0  0  0  0  0  0  0  0
   -3.0670    1.6338    0.6195 C   0  0  0  0  0  0  0  0  0  0  0  0
   -4.2027    2.6041    0.4033 C   0  0  0  0  0  0  0  0  0  0  0  0
   -1.8540    1.7989   -0.2809 C   0  0  2  0  0  0  0  0  0  0  0  0
   -2.1727    1.4065   -1.7719 C   0  0  0  0  0  0  0  0  0  0  0  0
   -1.5398    0.0731   -2.1477 C   0  0  1  0  0  0  0  0  0  0  0  0
   -1.9378   -0.4444   -3.4105 O   0  0  0  0  0  0  0  0  0  0  0  0
   -1.5394   -1.7357   -3.6316 C   0  0  0  0  0  0  0  0  0  0  0  0
   -2.0546   -2.4480   -4.4808 O   0  0  0  0  0  0  0  0  0  0  0  0
   -0.3843   -2.2214   -2.8177 C   0  0  0  0  0  0  0  0  0  0  0  0
    0.3815   -1.3851   -2.0798 C   0  0  0  0  0  0  0  0  0  0  0  0
  2  1  1  6
  2  3  1  0
  2 27  1  0
  3  5  1  0
  3  4  2  0
  5  7  1  0
 10  5  1  6
  5  6  1  1
  7  8  1  0
  9  8  1  6
  9 10  1  0
  9 22  1  0
  9 27  1  0
 10 11  1  0
 11 13  1  0
 11 20  1  0
 11 12  1  6
 13 15  1  0
 13 14  2  0
 15 17  1  0
 15 16  2  0
 17 18  2  0
 18 20  1  0
 18 19  1  0
 20 21  1  1
 22 21  1  1
 22 23  1  0
 23 24  1  0
 24 26  1  0
 24 25  2  0
 26 27  2  0
M  END
>  <COMPND>  (8) 
    UNNAMED

>  <AUTHOR>  (8) 
    GENERATED BY OPEN BABEL 2.3.90

>  <MASTER>  (8) 
        0    0    0    0    0    0    0    0   27    0   27    0

$$$$
C:\Users\Usuario X\OneDrive - Universidad Autonoma de Coahuila\Documentos\ALEX\INVESTIGACIÓN\PROYECTOS\Magali\castela\estructuras\Chaparrinone.pdb
     RDKit          3D

 27 31  0  0  1  0  0  0  0  0999 V2000
   -1.4512    0.7624   -4.0260 C   0  0  0  0  0  0  0  0  0  0  0  0
   -1.0012   -0.2344   -2.9550 C   0  0  0  0  0  0  0  0  0  0  0  0
   -2.1518   -1.1441   -2.4958 C   0  0  0  0  0  0  0  0  0  0  0  0
   -3.1472   -1.3901   -3.1819 O   0  0  0  0  0  0  0  0  0  0  0  0
   -1.9119   -1.8890   -1.1653 C   0  0  1  0  0  0  0  0  0  0  0  0
   -2.9282   -2.7992   -0.8271 O   0  0  0  0  0  0  0  0  0  0  0  0
   -0.6648   -2.6150   -1.3539 O   0  0  0  0  0  0  0  0  0  0  0  0
    0.4113   -1.8223   -0.7810 C   0  0  0  0  0  0  0  0  0  0  0  0
   -0.2274   -0.4608   -0.4528 C   0  0  1  0  0  0  0  0  0  0  0  0
   -1.5963   -0.9658    0.0030 C   0  0  1  0  0  0  0  0  0  0  0  0
   -2.5938    0.0228    0.6801 C   0  0  2  0  0  0  0  0  0  0  0  0
   -3.8124   -0.7775    1.1995 C   0  0  0  0  0  0  0  0  0  0  0  0
   -3.1712    1.1251   -0.1947 C   0  0  0  0  0  0  0  0  0  0  0  0
   -3.0569    1.1805   -1.4064 O   0  0  0  0  0  0  0  0  0  0  0  0
   -3.9418    2.2248    0.5221 C   0  0  0  0  0  0  0  0  0  0  0  0
   -5.0197    2.6044    0.0898 O   0  0  0  0  0  0  0  0  0  0  0  0
   -3.2612    2.8229    1.7195 C   0  0  0  0  0  0  0  0  0  0  0  0
   -2.6959    1.7376    2.6362 C   0  0  2  0  0  0  0  0  0  0  0  0
   -1.9693    2.3787    3.8225 C   0  0  0  0  0  0  0  0  0  0  0  0
   -1.8193    0.7085    1.8650 C   0  0  2  0  0  0  0  0  0  0  0  0
   -0.4866    1.3211    1.3741 C   0  0  0  0  0  0  0  0  0  0  0  0
    0.4478    0.3087    0.6819 C   0  0  2  0  0  0  0  0  0  0  0  0
    1.6234    1.0098    0.2417 O   0  0  0  0  0  0  0  0  0  0  0  0
    1.5430    1.8190   -0.8423 C   0  0  0  0  0  0  0  0  0  0  0  0
    2.2943    2.7667   -1.0182 O   0  0  0  0  0  0  0  0  0  0  0  0
    0.5512    1.4333   -1.8653 C   0  0  0  0  0  0  0  0  0  0  0  0
   -0.2378    0.3487   -1.7537 C   0  0  0  0  0  0  0  0  0  0  0  0
  2  1  1  0
  2  3  1  0
  2 27  1  0
  3  5  1  0
  3  4  2  0
  5  7  1  0
 10  5  1  1
  5  6  1  1
  7  8  1  0
  9  8  1  6
  9 10  1  0
  9 22  1  0
  9 27  1  0
 10 11  1  0
 11 13  1  0
 11 20  1  0
 11 12  1  6
 13 15  1  0
 13 14  2  0
 15 17  1  0
 15 16  2  0
 17 18  1  0
 18 20  1  0
 18 19  1  1
 20 21  1  1
 22 21  1  6
 22 23  1  0
 23 24  1  0
 24 26  1  0
 24 25  2  0
 26 27  2  0
M  END
>  <COMPND>  (9) 
    UNNAMED

>  <AUTHOR>  (9) 
    GENERATED BY OPEN BABEL 2.3.90

>  <MASTER>  (9) 
        0    0    0    0    0    0    0    0   27    0   27    0

$$$$
C:\Users\Usuario X\OneDrive - Universidad Autonoma de Coahuila\Documentos\ALEX\INVESTIGACIÓN\PROYECTOS\Magali\castela\estructuras\Chaparrolide.pdb
     RDKit          3D

 26 29  0  0  1  0  0  0  0  0999 V2000
   -0.8161    5.2159   -1.4147 C   0  0  0  0  0  0  0  0  0  0  0  0
   -0.5512    4.0017   -0.5600 C   0  0  0  0  0  0  0  0  0  0  0  0
   -0.2654    4.1501    0.7456 C   0  0  0  0  0  0  0  0  0  0  0  0
    0.0349    2.9721    1.5864 C   0  0  0  0  0  0  0  0  0  0  0  0
    0.3986    3.1126    2.7525 O   0  0  0  0  0  0  0  0  0  0  0  0
   -0.1759    1.5901    0.9693 C   0  0  2  0  0  0  0  0  0  0  0  0
    0.5079    0.5784    1.7016 O   0  0  0  0  0  0  0  0  0  0  0  0
    0.2392    1.5475   -0.5271 C   0  0  2  0  0  0  0  0  0  0  0  0
    1.7732    1.8232   -0.5989 C   0  0  0  0  0  0  0  0  0  0  0  0
   -0.5613    2.6543   -1.2827 C   0  0  1  0  0  0  0  0  0  0  0  0
   -1.9794    2.2105   -1.5683 C   0  0  0  0  0  0  0  0  0  0  0  0
   -2.4169    0.9412   -1.5445 C   0  0  0  0  0  0  0  0  0  0  0  0
   -3.7680    0.6987   -1.9071 O   0  0  0  0  0  0  0  0  0  0  0  0
   -4.1003   -0.3980   -2.6494 C   0  0  0  0  0  0  0  0  0  0  0  0
   -5.2405   -0.6181   -3.0374 O   0  0  0  0  0  0  0  0  0  0  0  0
   -3.0012   -1.3209   -2.9969 C   0  0  0  0  0  0  0  0  0  0  0  0
   -1.8211   -1.3128   -2.3477 C   0  0  0  0  0  0  0  0  0  0  0  0
   -0.7140   -2.2716   -2.7458 C   0  0  2  0  0  0  0  0  0  0  0  0
   -0.4459   -3.3581   -1.7114 C   0  0  0  0  0  0  0  0  0  0  0  0
    0.5492   -1.4876   -3.0325 C   0  0  0  0  0  0  0  0  0  0  0  0
    1.5490   -1.9520   -3.5602 O   0  0  0  0  0  0  0  0  0  0  0  0
    0.5306   -0.0501   -2.5530 C   0  0  0  0  0  0  0  0  0  0  0  0
    0.9061    0.8374   -3.3024 O   0  0  0  0  0  0  0  0  0  0  0  0
   -0.0539    0.1272   -1.1539 C   0  0  2  0  0  0  0  0  0  0  0  0
   -1.5668   -0.2823   -1.2364 C   0  0  1  0  0  0  0  0  0  0  0  0
   -2.0594   -0.9320    0.0826 C   0  0  0  0  0  0  0  0  0  0  0  0
  1  2  1  0
  2  3  2  0
  2 10  1  0
  3  4  1  0
  4  6  1  0
  4  5  2  0
  6  8  1  0
  6  7  1  6
  8 10  1  0
  8 24  1  0
  8  9  1  1
 10 11  1  1
 11 12  2  0
 12 13  1  0
 12 25  1  0
 13 14  1  0
 14 16  1  0
 14 15  2  0
 16 17  2  0
 17 18  1  0
 17 25  1  0
 18 20  1  0
 18 19  1  6
 20 22  1  0
 20 21  2  0
 22 23  2  0
 24 22  1  6
 24 25  1  0
 25 26  1  1
M  END
>  <COMPND>  (10) 
    UNNAMED

>  <AUTHOR>  (10) 
    GENERATED BY OPEN BABEL 2.3.90

>  <MASTER>  (10) 
        0    0    0    0    0    0    0    0   26    0   26    0

$$$$
C:\Users\Usuario X\OneDrive - Universidad Autonoma de Coahuila\Documentos\ALEX\INVESTIGACIÓN\PROYECTOS\Magali\castela\estructuras\Glaucarubinone.pdb
     RDKit          3D

 35 39  0  0  1  0  0  0  0  0999 V2000
    1.9398   -6.0738   -0.1400 C   0  0  0  0  0  0  0  0  0  0  0  0
    1.2519   -5.1672    0.8735 C   0  0  0  0  0  0  0  0  0  0  0  0
    2.2101   -4.2931    1.7037 C   0  0  1  0  0  0  0  0  0  0  0  0
    3.2064   -5.1233    2.5167 C   0  0  0  0  0  0  0  0  0  0  0  0
    2.9574   -3.4655    0.8044 O   0  0  0  0  0  0  0  0  0  0  0  0
    1.3426   -3.4486    2.6666 C   0  0  0  0  0  0  0  0  0  0  0  0
    1.0569   -3.7621    3.8132 O   0  0  0  0  0  0  0  0  0  0  0  0
    0.9323   -2.2981    2.0552 O   0  0  0  0  0  0  0  0  0  0  0  0
   -0.0055   -1.4897    2.7738 C   0  0  1  0  0  0  0  0  0  0  0  0
    0.2905    0.0046    2.5611 C   0  0  1  0  0  0  0  0  0  0  0  0
    1.7445    0.4148    2.9646 C   0  0  2  0  0  0  0  0  0  0  0  0
    1.9154    0.4338    4.4841 C   0  0  0  0  0  0  0  0  0  0  0  0
    2.1612    1.7756    2.3605 C   0  0  0  0  0  0  0  0  0  0  0  0
    2.9838    2.5130    2.9074 O   0  0  0  0  0  0  0  0  0  0  0  0
    1.5500    2.1417    0.9670 C   0  0  1  0  0  0  0  0  0  0  0  0
    1.9298    3.4095    0.5250 O   0  0  0  0  0  0  0  0  0  0  0  0
    1.9683    1.1790    0.0130 O   0  0  0  0  0  0  0  0  0  0  0  0
    1.1103    0.0437    0.1235 C   0  0  0  0  0  0  0  0  0  0  0  0
   -0.0224    0.4367    1.1093 C   0  0  2  0  0  0  0  0  0  0  0  0
    0.0331    1.9987    1.1089 C   0  0  2  0  0  0  0  0  0  0  0  0
   -0.9692    2.6958    0.1105 C   0  0  1  0  0  0  0  0  0  0  0  0
   -2.2515    3.0652    0.9434 C   0  0  0  0  0  0  0  0  0  0  0  0
   -0.5022    4.0552   -0.4061 C   0  0  0  0  0  0  0  0  0  0  0  0
   -0.3501    5.0310    0.3225 O   0  0  0  0  0  0  0  0  0  0  0  0
   -0.3484    4.2272   -1.9094 C   0  0  0  0  0  0  0  0  0  0  0  0
    0.5325    4.9484   -2.3608 O   0  0  0  0  0  0  0  0  0  0  0  0
   -1.3516    3.5351   -2.7997 C   0  0  0  0  0  0  0  0  0  0  0  0
   -2.1984    2.4406   -2.1289 C   0  0  1  0  0  0  0  0  0  0  0  0
   -2.7176    1.4904   -3.2164 C   0  0  0  0  0  0  0  0  0  0  0  0
   -1.3480    1.7314   -1.0520 C   0  0  2  0  0  0  0  0  0  0  0  0
   -1.9436    0.4781   -0.4350 C   0  0  0  0  0  0  0  0  0  0  0  0
   -1.3276   -0.1011    0.6107 C   0  0  0  0  0  0  0  0  0  0  0  0
   -1.9258   -1.2066    1.2523 O   0  0  0  0  0  0  0  0  0  0  0  0
   -1.4048   -1.8838    2.3164 C   0  0  0  0  0  0  0  0  0  0  0  0
   -2.0226   -2.8125    2.8303 O   0  0  0  0  0  0  0  0  0  0  0  0
  1  2  1  0
  2  3  1  0
  3  5  1  0
  3  6  1  0
  3  4  1  6
  6  7  2  0
  6  8  1  0
  9  8  1  6
 10  9  1  6
  9 34  1  0
 10 11  1  0
 10 19  1  0
 11 13  1  0
 11 12  1  1
 13 15  1  0
 13 14  2  0
 15 17  1  0
 20 15  1  6
 15 16  1  6
 17 18  1  0
 19 18  1  6
 19 20  1  0
 19 32  1  0
 20 21  1  0
 21 23  1  0
 21 30  1  0
 21 22  1  1
 23 25  1  0
 23 24  2  0
 25 27  1  0
 25 26  2  0
 27 28  1  0
 28 30  1  0
 28 29  1  1
 30 31  1  6
 31 32  2  0
 32 33  1  0
 33 34  1  0
 34 35  2  0
M  END
>  <COMPND>  (11) 
    UNNAMED

>  <AUTHOR>  (11) 
    GENERATED BY OPEN BABEL 2.3.90

>  <MASTER>  (11) 
        0    0    0    0    0    0    0    0   35    0   35    0

$$$$
C:\Users\Usuario X\OneDrive - Universidad Autonoma de Coahuila\Documentos\ALEX\INVESTIGACIÓN\PROYECTOS\Magali\castela\estructuras\Glaucarubol.pdb
     RDKit          3D

 28 32  0  0  1  0  0  0  0  0999 V2000
    1.7111   -1.8443    3.3990 C   0  0  0  0  0  0  0  0  0  0  0  0
    1.6421   -0.3297    3.2152 C   0  0  1  0  0  0  0  0  0  0  0  0
    2.8873    0.1170    2.4603 C   0  0  0  0  0  0  0  0  0  0  0  0
    3.9741    0.2351    3.0298 O   0  0  0  0  0  0  0  0  0  0  0  0
    2.7310    0.3652    0.9385 C   0  0  1  0  0  0  0  0  0  0  0  0
    3.9434    0.7530    0.3637 O   0  0  0  0  0  0  0  0  0  0  0  0
    2.2254   -0.8198    0.3310 O   0  0  0  0  0  0  0  0  0  0  0  0
    0.7957   -0.7499    0.2959 C   0  0  0  0  0  0  0  0  0  0  0  0
    0.4077    0.5427    1.0301 C   0  0  1  0  0  0  0  0  0  0  0  0
    1.6398    1.4216    0.7172 C   0  0  2  0  0  0  0  0  0  0  0  0
    1.6649    2.2312   -0.6498 C   0  0  1  0  0  0  0  0  0  0  0  0
    2.1655    3.6649   -0.2749 C   0  0  0  0  0  0  0  0  0  0  0  0
    2.6420    1.7425   -1.7373 C   0  0  0  0  0  0  0  0  0  0  0  0
    3.6749    2.3186   -2.0612 O   0  0  0  0  0  0  0  0  0  0  0  0
    2.1963    0.5514   -2.5576 C   0  0  0  0  0  0  0  0  0  0  0  0
    2.9542   -0.3394   -2.8992 O   0  0  0  0  0  0  0  0  0  0  0  0
    0.7885    0.5799   -2.9874 C   0  0  0  0  0  0  0  0  0  0  0  0
   -0.0944    1.4297   -2.4374 C   0  0  0  0  0  0  0  0  0  0  0  0
   -1.4862    1.5086   -3.0191 C   0  0  0  0  0  0  0  0  0  0  0  0
    0.2492    2.3996   -1.3049 C   0  0  1  0  0  0  0  0  0  0  0  0
   -0.8230    2.4133   -0.2065 C   0  0  0  0  0  0  0  0  0  0  0  0
   -0.9553    1.0854    0.5408 C   0  0  2  0  0  0  0  0  0  0  0  0
   -1.9242    1.3602    1.5906 O   0  0  0  0  0  0  0  0  0  0  0  0
   -2.1272    0.5176    2.6216 C   0  0  0  0  0  0  0  0  0  0  0  0
   -3.0956    0.5317    3.3554 O   0  0  0  0  0  0  0  0  0  0  0  0
   -0.9416   -0.4058    2.8414 C   0  0  0  0  0  0  0  0  0  0  0  0
   -1.1050   -1.5876    3.0848 O   0  0  0  0  0  0  0  0  0  0  0  0
    0.3749    0.2856    2.5740 C   0  0  1  0  0  0  0  0  0  0  0  0
  2  1  1  1
  2  3  1  0
  2 28  1  0
  3  5  1  0
  3  4  2  0
  5  7  1  0
 10  5  1  6
  5  6  1  6
  7  8  1  0
  9  8  1  6
  9 10  1  0
  9 22  1  0
  9 28  1  0
 10 11  1  0
 11 13  1  0
 11 20  1  0
 11 12  1  1
 13 15  1  0
 13 14  2  0
 15 17  1  0
 15 16  2  0
 17 18  2  0
 18 20  1  0
 18 19  1  0
 20 21  1  1
 22 21  1  1
 22 23  1  0
 23 24  1  0
 24 26  1  0
 24 25  2  0
 28 26  1  6
 26 27  2  0
M  END
>  <COMPND>  (12) 
    UNNAMED

>  <AUTHOR>  (12) 
    GENERATED BY OPEN BABEL 2.3.90

>  <MASTER>  (12) 
        0    0    0    0    0    0    0    0   28    0   28    0

$$$$
C:\Users\Usuario X\OneDrive - Universidad Autonoma de Coahuila\Documentos\ALEX\INVESTIGACIÓN\PROYECTOS\Magali\castela\estructuras\Glaucarubolone.pdb
     RDKit          3D

 28 32  0  0  1  0  0  0  0  0999 V2000
    0.4569   -1.8096   -0.1817 C   0  0  0  0  0  0  0  0  0  0  0  0
    1.2403   -2.5050   -0.8236 O   0  0  0  0  0  0  0  0  0  0  0  0
    0.9188   -1.0815    1.0589 C   0  0  0  0  0  0  0  0  0  0  0  0
   -0.1773   -0.6197    1.6964 C   0  0  0  0  0  0  0  0  0  0  0  0
   -0.7727   -1.4656    2.7976 C   0  0  0  0  0  0  0  0  0  0  0  0
   -1.0527    0.4173    0.9816 C   0  0  2  0  0  0  0  0  0  0  0  0
   -2.1713    0.9041    1.8521 C   0  0  0  0  0  0  0  0  0  0  0  0
   -3.4160    1.1468    1.4395 C   0  0  0  0  0  0  0  0  0  0  0  0
   -4.3971    1.4040    2.4335 O   0  0  0  0  0  0  0  0  0  0  0  0
   -5.4781    0.5717    2.4708 C   0  0  0  0  0  0  0  0  0  0  0  0
   -6.2876    0.5056    3.3764 O   0  0  0  0  0  0  0  0  0  0  0  0
   -5.6291   -0.2129    1.1682 C   0  0  0  0  0  0  0  0  0  0  0  0
   -5.7998   -1.4184    1.1549 O   0  0  0  0  0  0  0  0  0  0  0  0
   -5.3893    0.6687   -0.0318 C   0  0  2  0  0  0  0  0  0  0  0  0
   -5.9808    0.2448   -1.3917 C   0  0  0  0  0  0  0  0  0  0  0  0
   -7.2090   -0.6562   -1.3224 C   0  0  0  0  0  0  0  0  0  0  0  0
   -4.9247   -0.2954   -2.3420 C   0  0  0  0  0  0  0  0  0  0  0  0
   -5.1837   -1.1005   -3.2385 O   0  0  0  0  0  0  0  0  0  0  0  0
   -3.5065    0.3025   -2.1787 C   0  0  1  0  0  0  0  0  0  0  0  0
   -2.6842   -0.1287   -3.2268 O   0  0  0  0  0  0  0  0  0  0  0  0
   -3.6301    1.7357   -2.2136 O   0  0  0  0  0  0  0  0  0  0  0  0
   -3.6295    2.2282   -0.8642 C   0  0  0  0  0  0  0  0  0  0  0  0
   -3.8600    0.9956    0.0103 C   0  0  1  0  0  0  0  0  0  0  0  0
   -3.0320   -0.0605   -0.7589 C   0  0  2  0  0  0  0  0  0  0  0  0
   -1.4572   -0.1021   -0.4725 C   0  0  1  0  0  0  0  0  0  0  0  0
   -0.6092    0.7288   -1.4825 C   0  0  0  0  0  0  0  0  0  0  0  0
   -1.0135   -1.6166   -0.6002 C   0  0  1  0  0  0  0  0  0  0  0  0
   -1.2540   -2.1282   -1.9015 O   0  0  0  0  0  0  0  0  0  0  0  0
  1  3  1  0
  1 27  1  0
  1  2  2  0
  3  4  2  0
  4  6  1  0
  4  5  1  0
  6  7  1  6
  6 25  1  0
  7  8  2  0
  8  9  1  0
  8 23  1  0
  9 10  1  0
 10 12  1  0
 10 11  2  0
 12 13  2  0
 14 12  1  0
 14 15  1  1
 14 23  1  0
 15 17  1  0
 15 16  1  0
 17 19  1  0
 17 18  2  0
 19 21  1  0
 24 19  1  6
 19 20  1  6
 21 22  1  0
 23 22  1  6
 23 24  1  0
 24 25  1  0
 25 27  1  0
 25 26  1  6
 27 28  1  1
M  END
>  <COMPND>  (13) 
    UNNAMED

>  <AUTHOR>  (13) 
    GENERATED BY OPEN BABEL 2.3.90

>  <MASTER>  (13) 
        0    0    0    0    0    0    0    0   28    0   28    0

$$$$
C:\Users\Usuario X\OneDrive - Universidad Autonoma de Coahuila\Documentos\ALEX\INVESTIGACIÓN\PROYECTOS\Magali\castela\estructuras\Holacantona.pdb
     RDKit          3D

 31 35  0  0  1  0  0  0  0  0999 V2000
    4.3000    2.2562   -1.2408 C   0  0  0  0  0  0  0  0  0  0  0  0
    2.9041    1.4962   -1.0402 C   0  0  1  0  0  0  0  0  0  0  0  0
    2.0714    2.1877   -2.0615 C   0  0  0  0  0  0  0  0  0  0  0  0
    1.9620    3.3564   -2.3563 O   0  0  0  0  0  0  0  0  0  0  0  0
    1.3390    1.0264   -2.4521 C   0  0  1  0  0  0  0  0  0  0  0  0
    0.4245    0.8351   -3.4519 O   0  0  0  0  0  0  0  0  0  0  0  0
    3.0095    0.3994   -2.8341 O   0  0  0  0  0  0  0  0  0  0  0  0
    3.7783   -0.2609   -1.2837 C   0  0  0  0  0  0  0  0  0  0  0  0
    2.3213   -0.0887   -0.0022 C   0  0  2  0  0  0  0  0  0  0  0  0
    0.8637    0.6951   -0.6737 C   0  0  2  0  0  0  0  0  0  0  0  0
   -0.5068    0.1621   -0.1551 C   0  0  1  0  0  0  0  0  0  0  0  0
   -1.5722    1.2196   -0.5466 C   0  0  0  0  0  0  0  0  0  0  0  0
   -0.9758   -1.1025   -0.8636 C   0  0  0  0  0  0  0  0  0  0  0  0
   -0.6957   -1.3422   -2.0329 O   0  0  0  0  0  0  0  0  0  0  0  0
   -1.9140   -2.0370   -0.1095 C   0  0  0  0  0  0  0  0  0  0  0  0
   -2.7857   -2.6423   -0.7161 O   0  0  0  0  0  0  0  0  0  0  0  0
   -1.6635   -2.2016    1.3615 C   0  0  0  0  0  0  0  0  0  0  0  0
   -1.5258   -0.8579    2.0697 C   0  0  2  0  0  0  0  0  0  0  0  0
   -2.8831   -0.1528    2.1793 C   0  0  0  0  0  0  0  0  0  0  0  0
   -0.4089    0.0217    1.4391 C   0  0  1  0  0  0  0  0  0  0  0  0
    1.0066   -0.4250    2.0244 C   0  0  0  0  0  0  0  0  0  0  0  0
    1.8457   -1.1313    0.9758 C   0  0  2  0  0  0  0  0  0  0  0  0
    2.9540   -1.8925    1.3764 O   0  0  0  0  0  0  0  0  0  0  0  0
    3.4822   -2.5525    0.2868 C   0  0  0  0  0  0  0  0  0  0  0  0
    4.4901   -3.2395    0.3629 O   0  0  0  0  0  0  0  0  0  0  0  0
    2.6878   -2.2639   -1.0470 C   0  0  2  0  0  0  0  0  0  0  0  0
    3.1900   -2.8437   -2.2585 O   0  0  0  0  0  0  0  0  0  0  0  0
    3.0678   -4.1991   -2.3267 C   0  0  0  0  0  0  0  0  0  0  0  0
    3.7006   -4.7153   -3.5811 C   0  0  0  0  0  0  0  0  0  0  0  0
    2.5016   -4.8908   -1.4921 O   0  0  0  0  0  0  0  0  0  0  0  0
    2.3230   -0.5156   -1.2836 C   0  0  0  0  0  0  0  0  0  0  0  0
  2  1  1  1
  2  3  1  0
  2 31  1  0
  3  5  1  0
  3  4  2  0
  5  7  1  0
 10  5  1  6
  5  6  1  6
  7  8  1  0
  9  8  1  6
  9 10  1  0
  9 22  1  0
  9 31  1  0
 10 11  1  0
 11 13  1  0
 11 20  1  0
 11 12  1  1
 13 15  1  0
 13 14  2  0
 15 17  1  0
 15 16  2  0
 17 18  1  0
 18 20  1  0
 18 19  1  6
 20 21  1  6
 22 21  1  1
 22 23  1  0
 23 24  1  0
 24 26  1  0
 24 25  2  0
 26 31  1  0
 26 27  1  1
 27 28  1  0
 28 29  1  0
 28 30  2  0
M  END
>  <COMPND>  (14) 
    UNNAMED

>  <AUTHOR>  (14) 
    GENERATED BY OPEN BABEL 2.3.90

>  <MASTER>  (14) 
        0    0    0    0    0    0    0    0   31    0   31    0

$$$$
C:\Users\Usuario X\OneDrive - Universidad Autonoma de Coahuila\Documentos\ALEX\INVESTIGACIÓN\PROYECTOS\Magali\castela\estructuras\Peninsularinone.pdb
     RDKit          3D

 38 42  0  0  1  0  0  0  0  0999 V2000
   -3.5770    3.9410   -0.6830 C   0  0  0  0  0  0  0  0  0  0  0  0
   -3.6630    5.1470   -0.8710 O   0  0  0  0  0  0  0  0  0  0  0  0
   -3.6340    3.0300   -1.7860 C   0  0  0  0  0  0  0  0  0  0  0  0
   -3.6080    1.7480   -1.9210 C   0  0  0  0  0  0  0  0  0  0  0  0
   -3.4180    1.1550   -3.3060 C   0  0  0  0  0  0  0  0  0  0  0  0
   -3.5460    0.9990   -0.6790 C   0  0  1  0  0  0  0  0  0  0  0  0
   -2.4640    0.1220   -0.4260 C   0  0  0  0  0  0  0  0  0  0  0  0
   -1.8210   -0.2440    0.7620 C   0  0  0  0  0  0  0  0  0  0  0  0
   -0.5340   -0.7820    0.7600 O   0  0  0  0  0  0  0  0  0  0  0  0
    0.1680   -0.8670    1.9310 C   0  0  0  0  0  0  0  0  0  0  0  0
    1.1590   -1.5910    2.0060 O   0  0  0  0  0  0  0  0  0  0  0  0
   -0.3120   -0.0520    3.0860 C   0  0  0  0  0  0  0  0  0  0  0  0
    0.4730   -0.0540    4.2640 O   0  0  0  0  0  0  0  0  0  0  0  0
    1.7530    0.3900    4.0660 C   0  0  0  0  0  0  0  0  0  0  0  0
    2.1970    0.9520    3.0730 O   0  0  0  0  0  0  0  0  0  0  0  0
    2.6060    0.1450    5.1980 C   0  0  0  0  0  0  0  0  0  0  0  0
    3.4890   -0.1010    6.3540 C   0  0  2  0  0  0  0  0  0  0  0  0
    4.7050   -0.3840    5.8870 O   0  0  0  0  0  0  0  0  0  0  0  0
    2.9420   -1.2670    7.2240 C   0  0  2  0  0  0  0  0  0  0  0  0
    3.1290   -1.4150    8.7620 C   0  0  0  0  0  0  0  0  0  0  0  0
    2.3140   -2.5800    6.6930 C   0  0  0  0  0  0  0  0  0  0  0  0
    3.5970    1.1190    7.1990 C   0  0  0  0  0  0  0  0  0  0  0  0
    3.7480    2.3900    8.0860 C   0  0  0  0  0  0  0  0  0  0  0  0
   -1.7170    0.3140    3.2170 C   0  0  0  0  0  0  0  0  0  0  0  0
   -2.4940    0.8070    4.3770 C   0  0  1  0  0  0  0  0  0  0  0  0
   -1.7170    1.5560    5.4920 C   0  0  0  0  0  0  0  0  0  0  0  0
   -3.9850    0.6540    4.4440 C   0  0  0  0  0  0  0  0  0  0  0  0
   -4.4320    0.1460    5.5260 O   0  0  0  0  0  0  0  0  0  0  0  0
   -4.6890    0.3560    3.0410 C   0  0  2  0  0  0  0  0  0  0  0  0
   -5.9330    0.7680    2.9690 O   0  0  0  0  0  0  0  0  0  0  0  0
   -4.6240   -1.1190    2.8000 O   0  0  0  0  0  0  0  0  0  0  0  0
   -3.3930   -1.1640    2.3120 C   0  0  0  0  0  0  0  0  0  0  0  0
   -2.5770    0.0100    2.0230 C   0  0  2  0  0  0  0  0  0  0  0  0
   -3.7930    0.9470    1.9190 C   0  0  1  0  0  0  0  0  0  0  0  0
   -4.0610    1.7740    0.6350 C   0  0  2  0  0  0  0  0  0  0  0  0
   -5.6060    2.0280    0.2950 C   0  0  0  0  0  0  0  0  0  0  0  0
   -3.3340    3.2180    0.6320 C   0  0  0  0  0  0  0  0  0  0  0  0
   -2.1800    3.3410    1.1540 O   0  0  0  0  0  0  0  0  0  0  0  0
  1  2  2  0
  1  3  1  0
  1 37  1  0
  3  4  2  0
  4  5  1  0
  4  6  1  0
  6  7  1  1
  6 35  1  0
  8  7  1  0
  8  9  1  0
  8 33  1  0
  9 10  1  0
 10 11  2  0
 10 12  1  0
 12 13  1  0
 12 24  2  0
 13 14  1  0
 14 15  2  0
 14 16  1  0
 16 17  1  0
 17 19  1  0
 17 22  1  0
 17 18  1  6
 19 20  1  6
 19 21  1  0
 22 23  1  0
 24 25  1  0
 24 33  1  0
 25 26  1  6
 25 27  1  0
 27 29  1  0
 27 28  2  0
 29 30  1  1
 29 31  1  0
 34 29  1  6
 31 32  1  0
 33 32  1  1
 33 34  1  0
 34 35  1  0
 35 36  1  6
 35 37  1  0
 37 38  2  0
M  END
>  <COMPND>  (15) 
    UNNAMED

>  <AUTHOR>  (15) 
    GENERATED BY OPEN BABEL 2.3.90

>  <MASTER>  (15) 
        0    0    0    0    0    0    0    0   38    0   38    0

$$$$
C:\Users\Usuario X\OneDrive - Universidad Autonoma de Coahuila\Documentos\ALEX\INVESTIGACIÓN\PROYECTOS\Magali\castela\estructuras\Polyandrol.pdb
     RDKit          3D

 27 31  0  0  1  0  0  0  0  0999 V2000
    2.7810    0.6144   -2.1646 C   0  0  0  0  0  0  0  0  0  0  0  0
    1.6399    0.9693   -1.2109 C   0  0  1  0  0  0  0  0  0  0  0  0
    0.3252    0.7978   -1.9019 C   0  0  0  0  0  0  0  0  0  0  0  0
   -0.1576    1.6714   -2.6237 O   0  0  0  0  0  0  0  0  0  0  0  0
   -0.3497   -0.5411   -1.6971 C   0  0  1  0  0  0  0  0  0  0  0  0
   -1.5361   -0.6658   -2.4482 O   0  0  0  0  0  0  0  0  0  0  0  0
    0.5661   -1.6204   -2.0095 O   0  0  0  0  0  0  0  0  0  0  0  0
    1.0177   -2.2353   -0.7610 C   0  0  0  0  0  0  0  0  0  0  0  0
    0.6873   -1.2145    0.3138 C   0  0  2  0  0  0  0  0  0  0  0  0
    0.0888   -1.7633    1.8975 C   0  0  2  0  0  0  0  0  0  0  0  0
   -1.3962   -1.3193    1.8171 C   0  0  0  0  0  0  0  0  0  0  0  0
   -1.1417   -0.0244    0.9358 C   0  0  1  0  0  0  0  0  0  0  0  0
   -2.3763    0.8091    0.6853 C   0  0  0  0  0  0  0  0  0  0  0  0
   -0.0323    0.6777    1.8354 C   0  0  1  0  0  0  0  0  0  0  0  0
    1.7223   -0.2982    2.0660 O   0  0  0  0  0  0  0  0  0  0  0  0
    3.0081    0.6406    2.9072 C   0  0  0  0  0  0  0  0  0  0  0  0
    4.1146    0.1815    3.0794 O   0  0  0  0  0  0  0  0  0  0  0  0
    2.1724    2.3509    3.3254 C   0  0  0  0  0  0  0  0  0  0  0  0
    0.3379    2.4025    2.6589 C   0  0  1  0  0  0  0  0  0  0  0  0
   -0.0608    3.5967    1.7946 C   0  0  0  0  0  0  0  0  0  0  0  0
   -0.6405   -0.8041   -0.2546 C   0  0  1  0  0  0  0  0  0  0  0  0
    0.4648   -1.0102    3.3044 O   0  0  0  0  0  0  0  0  0  0  0  0
    1.0417    0.5115    3.4245 C   0  0  0  0  0  0  0  0  0  0  0  0
    0.9833    0.8512    4.5976 O   0  0  0  0  0  0  0  0  0  0  0  0
    1.7145    1.3303    1.5031 C   0  0  0  0  0  0  0  0  0  0  0  0
    2.2525    2.3665    1.1013 O   0  0  0  0  0  0  0  0  0  0  0  0
    1.6956    0.1627    0.1126 C   0  0  0  0  0  0  0  0  0  0  0  0
  2  1  1  1
  2  3  1  0
  2 27  1  0
  3  5  1  0
  3  4  2  0
  5  7  1  0
 21  5  1  1
  5  6  1  6
  7  8  1  0
  9  8  1  6
  9 10  1  0
  9 21  1  0
  9 27  1  0
 10 11  1  6
 10 22  1  0
 11 12  1  0
 12 21  1  0
 12 13  1  1
 12 14  1  0
 14 15  1  1
 14 19  1  0
 15 16  1  0
 16 17  2  0
 16 18  1  0
 18 19  1  0
 19 20  1  6
 22 23  1  0
 23 25  1  0
 23 24  2  0
 25 27  1  0
 25 26  2  0
M  END
>  <COMPND>  (16) 
    UNNAMED

>  <AUTHOR>  (16) 
    GENERATED BY OPEN BABEL 2.3.90

>  <MASTER>  (16) 
        0    0    0    0    0    0    0    0   27    0   27    0

$$$$
